@<TRIPOS>MOLECULE
CRO
   37    38     1     0     1 
SMALL
USER_CHARGES
@<TRIPOS>ATOM
  1 CA1    24.714000   26.709000   36.996000 c3    1 CRO     0.0524 ****
  2 CA2    26.958000   28.182000   39.420000 cc    1 CRO    -0.0156 ****
  3 CA3    23.747000   26.552000   39.955000 c3    1 CRO     0.0360 ****
  4 CB1    25.690000   25.835000   36.165000 c3    1 CRO     0.1521 ****
  5 CB2    28.076000   28.826000   39.856000 cf    1 CRO     0.0298 ****
  6 CG1    24.984000   24.990000   35.110000 c3    1 CRO    -0.1231 ****
  7 CG2    29.205000   29.283000   39.116000 ca    1 CRO    -0.1238 ****
  8 OG1    26.721000   26.573000   35.573000 oh    1 CRO    -0.6008 ****
  9 CD1    29.265000   29.235000   37.712000 ca    1 CRO    -0.0560 ****
 10 CD2    30.308000   29.809000   39.811000 ca    1 CRO    -0.0560 ****
 11 CE1    30.378000   29.675000   37.041000 ca    1 CRO    -0.1985 ****
 12 CE2    31.426000   30.244000   39.140000 ca    1 CRO    -0.1985 ****
 13 CZ     31.476000   30.183000   37.745000 ca    1 CRO     0.1441 ****
 14 OH     32.541000   30.598000   37.040000 oh    1 CRO    -0.4931 ****
 15 C1     25.454000   27.238000   38.190000 cd    1 CRO     0.4329 ****
 16 N1     24.071000   27.866000   36.364000 ns    1 CRO    -0.5389 ****
 17 C2     25.885000   27.754000   40.320000 c     1 CRO     0.6797 ****
 18 N2     26.608000   27.822000   38.126000 nc    1 CRO    -0.5823 ****
 19 O2     25.765000   27.856000   41.534000 o     1 CRO    -0.6085 ****
 20 C3     23.901000   25.089000   40.390000 c     1 CRO     0.6381 ****
 21 N3     24.951000   27.172000   39.472000 n     1 CRO    -0.4313 ****
 22 O3     23.048000   24.564000   41.092000 o     1 CRO    -0.6181 ****
 23 HOG1   27.082000   27.176000   36.245000 ho    1 CRO     0.4350 ****
 24 HG13   24.186000   24.411000   35.563000 hc    1 CRO     0.0507 ****
 25 HG12   24.587000   25.636000   34.334000 hc    1 CRO     0.0507 ****
 26 HG11   25.709000   24.319000   34.658000 hc    1 CRO     0.0507 ****
 27 HA32   23.409000   27.109000   40.834000 h1    1 CRO     0.0842 ****
 28 HA31   22.959000   26.593000   39.200000 h1    1 CRO     0.0842 ****
 29 HOH    33.248000   30.932000   37.616000 ho    1 CRO     0.4210 ****
 30 HE2    32.267000   30.638000   39.692000 ha    1 CRO     0.1470 ****
 31 HE1    30.432000   29.642000   35.964000 ha    1 CRO     0.1470 ****
 32 HD2    30.276000   29.858000   40.889000 ha    1 CRO     0.1515 ****
 33 HD1    28.417000   28.851000   37.171000 ha    1 CRO     0.1515 ****
 34 HB2    28.099000   28.977000   40.929000 ha    1 CRO     0.1480 ****
 35 HB1    26.129000   25.138000   36.908000 h1    1 CRO     0.0957 ****
 36 HA1    23.919000   26.033000   37.338000 h1    1 CRO     0.0707 ****
 37 H2     23.632000   28.454000   37.058000 hn    1 CRO     0.2985 ****
@<TRIPOS>BOND
    1     1     4 1
    2     1    15 1
    3     1    16 1
    4     1    36 1
    5     2     5 1
    6     2    17 1
    7     2    18 1
    8     3    20 1
    9     3    21 1
   10     3    27 1
   11     3    28 1
   12     4     6 1
   13     4     8 1
   14     4    35 1
   15     5     7 1
   16     5    34 1
   17     6    24 1
   18     6    25 1
   19     6    26 1
   20     7     9 1
   21     7    10 1
   22     8    23 1
   23     9    11 1
   24     9    33 1
   25    10    12 1
   26    10    32 1
   27    11    13 1
   28    11    31 1
   29    12    13 1
   30    12    30 1
   31    13    14 1
   32    14    29 1
   33    15    18 1
   34    15    21 1
   35    16    37 1
   36    17    19 1
   37    17    21 1
   38    20    22 1
@<TRIPOS>SUBSTRUCTURE
      1  CRO              1 ****               0 ****  **** 
