@<TRIPOS>MOLECULE
PCY
   36    37     1     0     1 
SMALL
USER_CHARGES
@<TRIPOS>ATOM
  1 N       0.756000    3.002000    0.117000 N     1 PCY    -0.5659 ****
  2 CA      0.362000    2.633000   -1.244000 CT    1 PCY     0.0507 ****
  3 C       1.095000    3.152000   -2.500000 C     1 PCY     0.6351 ****
  4 O       0.782000    2.686000   -3.588000 O     1 PCY    -0.6201 ****
  5 CB     -1.140000    2.920000   -1.406000 c3    1 PCY    -0.0561 ****
  6 CG     -2.101000    1.859000   -0.924000 ca    1 PCY    -0.0913 ****
  7 CD1    -1.736000    0.668000   -0.309000 ca    1 PCY    -0.1155 ****
  8 CD2    -3.458000    2.104000   -1.102000 ca    1 PCY    -0.1155 ****
  9 CE1    -2.690000   -0.243000    0.100000 ca    1 PCY    -0.1420 ****
 10 CE2    -4.427000    1.203000   -0.700000 ca    1 PCY    -0.1420 ****
 11 CZ     -4.045000    0.015000   -0.092000 ca    1 PCY     0.0871 ****
 12 OH     -4.907000   -0.950000    0.352000 os    1 PCY    -0.3419 ****
 13 CI     -7.056000   -1.918000    0.738000 ca    1 PCY    -0.0243 ****
 14 CK1    -8.449000   -1.919000    0.663000 ca    1 PCY    -0.1240 ****
 15 CK2    -6.450000   -3.012000    1.335000 ca    1 PCY    -0.1412 ****
 16 CY1    -9.189000   -2.972000    1.165000 ca    1 PCY    -0.0950 ****
 17 CY2    -7.178000   -4.080000    1.844000 ca    1 PCY    -0.0780 ****
 18 CM     -8.558000   -4.055000    1.757000 ca    1 PCY    -0.1290 ****
 19 ON1    -4.502000   -2.708000    2.495000 o     1 PCY    -0.2075 ****
 20 ON2    -4.398000   -3.706000    0.598000 o     1 PCY    -0.2075 ****
 21 CT     -6.294000   -0.749000    0.179000 c3    1 PCY     0.1627 ****
 22 NO     -5.002000   -3.121000    1.471000 no    1 PCY     0.3192 ****
 23 H       0.187000    2.464000    0.759000 hn    1 PCY     0.3185 ****
 24 HA      0.520000    1.547000   -1.315000 H1    1 PCY     0.0887 ****
 25 HB1    -1.376000    3.856000   -0.893000 hc    1 PCY     0.0782 ****
 26 HB2    -1.342000    3.072000   -2.472000 hc    1 PCY     0.0782 ****
 27 HD1    -0.702000    0.415000   -0.136000 ha    1 PCY     0.1415 ****
 28 HD2    -3.771000    3.024000   -1.576000 ha    1 PCY     0.1415 ****
 29 HE1    -2.408000   -1.170000    0.575000 ha    1 PCY     0.1555 ****
 30 HE2    -5.466000    1.441000   -0.867000 ha    1 PCY     0.1555 ****
 31 HK     -8.943000   -1.078000    0.202000 ha    1 PCY     0.1480 ****
 32 HL1   -10.265000   -2.949000    1.095000 ha    1 PCY     0.1450 ****
 33 HL2    -6.662000   -4.910000    2.300000 ha    1 PCY     0.1680 ****
 34 HM     -9.134000   -4.878000    2.149000 ha    1 PCY     0.1490 ****
 35 HT1    -6.611000    0.167000    0.698000 h1    1 PCY     0.0617 ****
 36 HT2    -6.530000   -0.645000   -0.891000 h1    1 PCY     0.0617 ****
@<TRIPOS>BOND
    1     1     2 1
    2     1    23 1
    3     2     3 1
    4     2     5 1
    5     2    24 1
    6     3     4 1
    7     5     6 1
    8     5    25 1
    9     5    26 1
   10     6     7 1
   11     6     8 1
   12     7     9 1
   13     7    27 1
   14     8    10 1
   15     8    28 1
   16     9    11 1
   17     9    29 1
   18    10    11 1
   19    10    30 1
   20    11    12 1
   21    12    21 1
   22    13    14 1
   23    13    15 1
   24    13    21 1
   25    14    16 1
   26    14    31 1
   27    15    17 1
   28    15    22 1
   29    16    18 1
   30    16    32 1
   31    17    18 1
   32    17    33 1
   33    18    34 1
   34    19    22 1
   35    20    22 1
   36    21    35 1
   37    21    36 1
@<TRIPOS>SUBSTRUCTURE
      1  PCY              1 ****               0 ****  **** 
