@<TRIPOS>MOLECULE
AIB
   13    12     1     0     1 
SMALL
USER_CHARGES
@<TRIPOS>ATOM
  1 N      -1.233000    0.864000    1.099000 ns    1 AIB       -0.5699 ****
  2 CA     -0.042000    0.136000    0.648000 c3    1 AIB        0.0644 ****
  3 C       0.112000    0.216000   -0.896000 c     1 AIB        0.6371 ****
  4 O       1.098000    0.705000   -1.412000 o     1 AIB       -0.6221 ****
  5 CB1     1.166000    0.818000    1.287000 c3    1 AIB       -0.1046 ****
  6 CB2    -0.106000   -1.331000    1.084000 c3    1 AIB       -0.1046 ****
  7 HN     -1.032000    1.716000    1.597000 hn    1 AIB        0.3155 ****
  8 HB11    1.090000    0.791000    2.372000 hc    1 AIB        0.0559 ****
  9 HB12    2.074000    0.307000    0.982000 hc    1 AIB        0.0559 ****
 10 HB13    1.240000    1.849000    0.949000 hc    1 AIB        0.0559 ****
 11 HB21    0.749000   -1.868000    0.683000 hc    1 AIB        0.0559 ****
 12 HB22   -0.083000   -1.394000    2.170000 hc    1 AIB        0.0559 ****
 13 HB23   -1.017000   -1.805000    0.730000 hc    1 AIB        0.0559 ****
@<TRIPOS>BOND
    1     1     2 1
    2     1     7 1
    3     2     3 1
    4     2     5 1
    5     2     6 1
    6     3     4 1
    7     5     8 1
    8     5     9 1
    9     5    10 1
   10     6    11 1
   11     6    12 1
   12     6    13 1
@<TRIPOS>SUBSTRUCTURE
      1  AIB              1 ****               0 ****  **** 
